Florida/Base_Florida_42GW.RAW
 0,    100.00, 33, 0, 1, 60.00       / January 30, 2020 19:26:32; Simulator Version 20; BuildDate 2019_10_21


27810,'St Lucie    ', 500.0000,2,   6,   1,   1,1.02000010, -30.571602, 1.10000, 0.90000, 1.10000, 0.90000
27811,'Seminole (~1', 500.0000,2,   6,   1,   1,1.02001131, -50.527164, 1.10000, 0.90000, 1.10000, 0.90000
27812,'St Johns R~1', 500.0000,2,   6,   1,   1,1.02000892, -49.963384, 1.10000, 0.90000, 1.10000, 0.90000
27813,'Anclote     ', 230.0000,2,   6,   1,   1,1.02002120, -51.881827, 1.10000, 0.90000, 1.10000, 0.90000
27814,'Stanton En~1', 500.0000,2,   6,   1,   1,1.01752877, -44.308967, 1.10000, 0.90000, 1.10000, 0.90000
27815,'Big Bend    ', 500.0000,2,   6,   1,   1,1.02001166, -45.965360, 1.10000, 0.90000, 1.10000, 0.90000
27816,'Crystal Ri~1', 500.0000,2,   6,   1,   1,1.02009428, -47.210507, 1.10000, 0.90000, 1.10000, 0.90000
27817,'Cape Canav~1', 230.0000,2,   6,   1,   1,1.02000237, -42.286213, 1.10000, 0.90000, 1.10000, 0.90000
27818,'Indiantown~1', 500.0000,1,   6,   1,   1,1.01105118, -27.435582, 1.10000, 0.90000, 1.10000, 0.90000
27819,'C D McInto~1', 230.0000,2,   6,   1,   1,1.02000916, -46.995267, 1.10000, 0.90000, 1.10000, 0.90000
27820,'Riviera     ', 230.0000,2,   6,   1,   1,1.00744748, -35.947880, 1.10000, 0.90000, 1.10000, 0.90000
27821,'West Count~1', 500.0000,2,   6,   1,   1,1.01999998, -30.479180, 1.10000, 0.90000, 1.10000, 0.90000
27822,'Northside ~1', 500.0000,2,   6,   1,   1,1.02000892, -50.034018, 1.10000, 0.90000, 1.10000, 0.90000
27823,'Cedar Bay ~1', 138.0000,2,   6,   1,   1,0.99992388, -53.029124, 1.10000, 0.90000, 1.10000, 0.90000
27824,'Deerhaven ~1', 138.0000,2,   6,   1,   1,1.01809525, -56.122097, 1.10000, 0.90000, 1.10000, 0.90000
27825,'Treasure C~1', 230.0000,2,   6,   1,   1,1.02000010, -32.428475, 1.10000, 0.90000, 1.10000, 0.90000
27826,'P L Bartow  ', 230.0000,2,   6,   1,   1,1.02001595, -50.568118, 1.10000, 0.90000, 1.10000, 0.90000
27827,'Osceola (FL)', 230.0000,2,   6,   1,   1,1.02000368, -44.050065, 1.10000, 0.90000, 1.10000, 0.90000
27828,'Santa Rosa~1', 138.0000,2,   6,   1,   1,1.01929104, -87.502592, 1.10000, 0.90000, 1.10000, 0.90000
27829,'DeSoto Cou~1', 138.0000,2,   6,   1,   1,1.02000475, -43.754943, 1.10000, 0.90000, 1.10000, 0.90000
27830,'Midulla Ge~1', 500.0000,2,   6,   1,   1,1.02000785, -43.838108, 1.10000, 0.90000, 1.10000, 0.90000
27831,'Arvah B Ho~1', 500.0000,2,   6,   1,   1,1.01885378, -66.571764, 1.10000, 0.90000, 1.10000, 0.90000
27832,'Oleander P~1', 230.0000,2,   6,   1,   1,1.02000201, -41.795249, 1.10000, 0.90000, 1.10000, 0.90000
27833,'Tiger Bay   ', 138.0000,2,   6,   1,   1,1.02000701, -44.008978, 1.10000, 0.90000, 1.10000, 0.90000
27834,'Polk        ', 500.0000,2,   6,   1,   1,1.02000749, -43.579083, 1.10000, 0.90000, 1.10000, 0.90000
27835,'Osprey Ene~1', 230.0000,2,   6,   1,   1,1.02000785, -46.261042, 1.10000, 0.90000, 1.10000, 0.90000
27836,'H L Culbre~1', 500.0000,2,   6,   1,   1,1.02001405, -46.795060, 1.10000, 0.90000, 1.10000, 0.90000
27837,'Fort Myers  ', 500.0000,2,   6,   1,   1,1.02000523, -46.768453, 1.10000, 0.90000, 1.10000, 0.90000
27838,'Sanford     ', 500.0000,2,   6,   1,   1,1.02000427, -44.708284, 1.10000, 0.90000, 1.10000, 0.90000
27839,'Manatee     ', 500.0000,2,   6,   1,   1,1.02000952, -45.033216, 1.10000, 0.90000, 1.10000, 0.90000
27840,'Martin      ', 500.0000,3,   6,   1,   1,1.00999999, -27.135828, 1.10000, 0.90000, 1.10000, 0.90000
27841,'Turkey Point', 500.0000,2,   6,   1,   1,1.01999998, -35.997750, 1.10000, 0.90000, 1.10000, 0.90000
27842,'Lauderdale  ', 500.0000,2,   6,   1,   1,1.01999998, -38.008196, 1.10000, 0.90000, 1.10000, 0.90000
27843,'J D Kennedy ', 230.0000,2,   6,   1,   1,1.00546849, -52.166786, 1.10000, 0.90000, 1.10000, 0.90000
27844,'Brandy Bra~1', 230.0000,2,   6,   1,   1,1.02000928, -51.787761, 1.10000, 0.90000, 1.10000, 0.90000
27845,'Vandolah P~1', 500.0000,2,   6,   1,   1,1.02000690, -43.493528, 1.10000, 0.90000, 1.10000, 0.90000
27846,'G E Turner  ', 138.0000,2,   6,   1,   1,0.99536711, -48.149722, 1.10000, 0.90000, 1.10000, 0.90000
27847,'Shady Hill~1', 230.0000,2,   6,   1,   1,1.01338482, -52.430653, 1.10000, 0.90000, 1.10000, 0.90000
27848,'Hines Ener~1', 500.0000,2,   6,   1,   1,1.02000737, -43.288069, 1.10000, 0.90000, 1.10000, 0.90000
27849,'Lansing Sm~1', 230.0000,2,   6,   1,   1,1.02001607, -79.464395, 1.10000, 0.90000, 1.10000, 0.90000
27850,'Auburndale~1', 230.0000,2,   6,   1,   1,1.01987481, -46.277462, 1.10000, 0.90000, 1.10000, 0.90000
27851,'Florida Po~1', 138.0000,2,   6,   1,   1,1.00050163, -53.399884, 1.10000, 0.90000, 1.10000, 0.90000
27852,'Stock Island', 138.0000,2,   6,   1,   1,1.02000022, -46.410538, 1.10000, 0.90000, 1.10000, 0.90000
27853,'Orlando Co~1', 138.0000,2,   6,   1,   1,0.97215319, -49.888347, 1.10000, 0.90000, 1.10000, 0.90000
27854,'Quantum Au~1', 230.0000,2,   6,   1,   1,1.01984584, -46.285286, 1.10000, 0.90000, 1.10000, 0.90000
27855,'DeBary      ', 500.0000,2,   6,   1,   1,1.02000415, -44.703909, 1.10000, 0.90000, 1.10000, 0.90000
27856,'Intercessi~1', 500.0000,2,   6,   1,   1,1.02000546, -45.219513, 1.10000, 0.90000, 1.10000, 0.90000
27857,'Crist       ', 230.0000,2,   6,   1,   1,1.02001190, -86.793960, 1.10000, 0.90000, 1.10000, 0.90000
27858,'Pensacola ~1', 138.0000,1,   6,   1,   1,1.00243545, -87.981852, 1.10000, 0.90000, 1.10000, 0.90000
27859,'Hardee Pow~1', 500.0000,1,   6,   1,   1,1.01996458, -43.854476, 1.10000, 0.90000, 1.10000, 0.90000
27860,'Putnam      ', 230.0000,2,   6,   1,   1,1.01558220, -50.988202, 1.10000, 0.90000, 1.10000, 0.90000
27861,'Mulberry C~1', 138.0000,2,   6,   1,   1,1.00980628, -46.231713, 1.10000, 0.90000, 1.10000, 0.90000
27862,'Cane Island ', 500.0000,1,   6,   1,   1,1.01907945, -45.329070, 1.10000, 0.90000, 1.10000, 0.90000
27863,'Indian River', 500.0000,2,   6,   1,   1,1.02000237, -42.014748, 1.10000, 0.90000, 1.10000, 0.90000
27864,'Cutler      ', 138.0000,2,   6,   1,   1,1.00553071, -42.685240, 1.10000, 0.90000, 1.10000, 0.90000
27865,'Clewiston ~1', 230.0000,1,   6,   1,   1,1.00318611, -34.891342, 1.10000, 0.90000, 1.10000, 0.90000
27866,'Central En~1', 138.0000,2,   6,   1,   1,0.98776203, -49.512748, 1.10000, 0.90000, 1.10000, 0.90000
27867,'Wheelabrat~1', 230.0000,1,   6,   1,   1,0.98997438, -39.471663, 1.10000, 0.90000, 1.10000, 0.90000
27868,'Wheelabrat~3', 138.0000,2,   6,   1,   1,0.99204773, -41.493283, 1.10000, 0.90000, 1.10000, 0.90000
27869,'Palm Beach~1', 138.0000,2,   6,   1,   1,0.99048436, -36.408313, 1.10000, 0.90000, 1.10000, 0.90000
27870,'Suwannee R~1', 138.0000,2,   6,   1,   1,1.02002847, -58.599417, 1.10000, 0.90000, 1.10000, 0.90000
27871,'G W Ivey    ',  69.0000,2,   6,   1,   1,0.98917276, -41.876856, 1.10000, 0.90000, 1.10000, 0.90000
27872,'Vero Beach~1', 230.0000,2,   6,   1,   1,1.00292397, -33.965093, 1.10000, 0.90000, 1.10000, 0.90000
27873,'Quantum Pa~1', 138.0000,2,   6,   1,   1,0.98559403, -52.826582, 1.10000, 0.90000, 1.10000, 0.90000
27874,'Bayboro     ', 138.0000,2,   6,   1,   1,1.00073814, -53.077557, 1.10000, 0.90000, 1.10000, 0.90000
27875,'Hansel      ', 138.0000,1,   6,   1,   1,0.98872662, -48.202496, 1.10000, 0.90000, 1.10000, 0.90000
27876,'Orange Cog~1', 138.0000,1,   6,   1,   1,1.00740004, -46.779197, 1.10000, 0.90000, 1.10000, 0.90000
27877,'Okeelanta ~1', 138.0000,2,   6,   1,   1,1.02000010, -36.757035, 1.10000, 0.90000, 1.10000, 0.90000
27878,'Winston     ', 138.0000,1,   6,   1,   1,0.98242515, -49.549355, 1.10000, 0.90000, 1.10000, 0.90000
27879,'Scholz      ', 138.0000,2,   6,   1,   1,0.98505461, -76.433573, 1.10000, 0.90000, 1.10000, 0.90000
27880,'John R Kelly', 230.0000,1,   6,   1,   1,1.00176191, -55.403202, 1.10000, 0.90000, 1.10000, 0.90000
27881,'Quantum La~1', 138.0000,1,   6,   1,   1,0.97392619, -52.970712, 1.10000, 0.90000, 1.10000, 0.90000
27882,'Tropicana ~1',  69.0000,2,   6,   1,   1,0.97162712, -51.702763, 1.10000, 0.90000, 1.10000, 0.90000
27883,'Wheelabrat~2', 138.0000,2,   6,   1,   1,1.00371790, -48.048035, 1.10000, 0.90000, 1.10000, 0.90000
27884,'Buckeye Fl~1',  69.0000,2,   6,   1,   1,0.99586743, -63.103394, 1.10000, 0.90000, 1.10000, 0.90000
27885,'Fernandina~1', 138.0000,2,   6,   1,   1,1.00550818, -53.944554, 1.10000, 0.90000, 1.10000, 0.90000
27886,'J Woodruff  ',  69.0000,2,   6,   1,   1,0.97787064, -76.950796, 1.10000, 0.90000, 1.10000, 0.90000
27887,'University~1',  69.0000,2,   6,   1,   1,0.99114215, -57.135612, 1.10000, 0.90000, 1.10000, 0.90000
27888,'Indian Riv~1', 138.0000,2,   6,   1,   1,1.02000237, -42.889647, 1.10000, 0.90000, 1.10000, 0.90000
27889,'The Mosaic~1', 138.0000,1,   6,   1,   1,0.97721273, -51.411988, 1.10000, 0.90000, 1.10000, 0.90000
27890,'Internatio~1',  69.0000,2,   6,   1,   1,1.00787508, -88.292981, 1.10000, 0.90000, 1.10000, 0.90000
27891,'Miami Dade~1', 138.0000,2,   6,   1,   1,0.98446989, -43.138788, 1.10000, 0.90000, 1.10000, 0.90000
27892,'Phillips    ',  69.0000,2,   6,   1,   1,0.97120714, -49.617981, 1.10000, 0.90000, 1.10000, 0.90000
27893,'Mosaic Sou~1',  69.0000,2,   6,   1,   1,1.02000856, -47.322580, 1.10000, 0.90000, 1.10000, 0.90000
27894,'Mosaic Co ~1', 500.0000,1,   6,   1,   1,1.01914239, -46.291832, 1.10000, 0.90000, 1.10000, 0.90000
27895,'Port Everg~1', 500.0000,2,   6,   1,   1,1.01999998, -38.022287, 1.10000, 0.90000, 1.10000, 0.90000
27896,'Avon Park   ', 138.0000,1,   6,   1,   1,0.98413843, -47.107839, 1.10000, 0.90000, 1.10000, 0.90000
27897,'Higgins     ', 138.0000,2,   6,   1,   1,0.99734735, -54.271556, 1.10000, 0.90000, 1.10000, 0.90000
27898,'Mosaic New~1', 138.0000,1,   6,   1,   1,1.00299299, -47.501425, 1.10000, 0.90000, 1.10000, 0.90000
27899,'Georgia-Pa~1', 138.0000,2,   6,   1,   1,1.01723897, -50.979241, 1.10000, 0.90000, 1.10000, 0.90000
27900,'Tom G Smith ', 138.0000,2,   6,   1,   1,0.99580723, -37.225702, 1.10000, 0.90000, 1.10000, 0.90000
27901,'Pasco Cnty~1', 138.0000,2,   6,   1,   1,0.99813515, -53.237308, 1.10000, 0.90000, 1.10000, 0.90000
27902,'S O Purdom  ', 138.0000,2,   6,   1,   1,1.02002752, -68.253479, 1.10000, 0.90000, 1.10000, 0.90000
27903,'Seminole M~1', 138.0000,2,   6,   1,   1,0.99873209, -53.056974, 1.10000, 0.90000, 1.10000, 0.90000
27904,'Hillsborou~1',  69.0000,2,   6,   1,   1,0.98574930, -50.180273, 1.10000, 0.90000, 1.10000, 0.90000
27905,'Suwannee R~2',  69.0000,2,   6,   1,   1,1.01519716, -59.875733, 1.10000, 0.90000, 1.10000, 0.90000
27906,'Pinellas C~1',  69.0000,2,   6,   1,   1,0.99368685, -52.974910, 1.10000, 0.90000, 1.10000, 0.90000
27907,'DeSoto Nex~1',  69.0000,2,   6,   1,   1,1.01759958, -44.465771, 1.10000, 0.90000, 1.10000, 0.90000
27908,'Field Street',  69.0000,2,   6,   1,   1,0.98519975, -49.888709, 1.10000, 0.90000, 1.10000, 0.90000
27909,'Larsen Mem~1', 138.0000,1,   6,   1,   1,1.00242019, -48.272666, 1.10000, 0.90000, 1.10000, 0.90000
27910,'McKay Bay ~1',  69.0000,2,   6,   1,   1,0.98402429, -51.078904, 1.10000, 0.90000, 1.10000, 0.90000
27911,'Marathon G~1',  69.0000,2,   6,   1,   1,0.99864715, -43.623776, 1.10000, 0.90000, 1.10000, 0.90000
27912,'Swift Cree~1',  69.0000,2,   6,   1,   1,1.00417769, -60.127214, 1.10000, 0.90000, 1.10000, 0.90000
27913,'WestRock P~1',  69.0000,2,   6,   1,   1,0.98181653, -83.404943, 1.10000, 0.90000, 1.10000, 0.90000
27914,'Lee County~1', 138.0000,2,   6,   1,   1,0.98585975, -49.956482, 1.10000, 0.90000, 1.10000, 0.90000
28026,'12001000200 ',  69.0000,1,   6,   1,   1,0.99144536, -57.135168, 1.10000, 0.90000, 1.10000, 0.90000
28027,'12001000301 ', 500.0000,1,   6,   1,   1,1.00999689, -54.048605, 1.10000, 0.90000, 1.10000, 0.90000
28028,'12001000302 ', 138.0000,1,   6,   1,   1,1.00323522, -56.104629, 1.10000, 0.90000, 1.10000, 0.90000
28029,'12001000400 ', 138.0000,1,   6,   1,   1,1.00198078, -56.130799, 1.10000, 0.90000, 1.10000, 0.90000
28030,'12001000500 ',  69.0000,1,   6,   1,   1,0.98821938, -57.399359, 1.10000, 0.90000, 1.10000, 0.90000
28031,'12001000600 ',  69.0000,1,   6,   1,   1,0.98466343, -57.576883, 1.10000, 0.90000, 1.10000, 0.90000
28032,'12001000700 ', 138.0000,1,   6,   1,   1,1.00059545, -55.815541, 1.10000, 0.90000, 1.10000, 0.90000
28033,'12001000806 ',  69.0000,1,   6,   1,   1,0.99114358, -57.119656, 1.10000, 0.90000, 1.10000, 0.90000
28034,'12001000808 ',  69.0000,1,   6,   1,   1,0.99005949, -57.149641, 1.10000, 0.90000, 1.10000, 0.90000
28035,'12001000809 ',  69.0000,1,   6,   1,   1,0.98791260, -57.359444, 1.10000, 0.90000, 1.10000, 0.90000
28036,'12001000901 ',  69.0000,1,   6,   1,   1,0.99012417, -57.144033, 1.10000, 0.90000, 1.10000, 0.90000
28037,'12001000902 ',  69.0000,1,   6,   1,   1,0.99108690, -57.140311, 1.10000, 0.90000, 1.10000, 0.90000
28038,'12001001000 ', 138.0000,1,   6,   1,   1,1.00039303, -56.203864, 1.10000, 0.90000, 1.10000, 0.90000
28039,'12001001100 ',  69.0000,1,   6,   1,   1,0.99104589, -57.392174, 1.10000, 0.90000, 1.10000, 0.90000
28040,'12001001201 ',  69.0000,1,   6,   1,   1,0.99579918, -57.140943, 1.10000, 0.90000, 1.10000, 0.90000
28041,'12001001202 ', 138.0000,1,   6,   1,   1,1.00592232, -56.153697, 1.10000, 0.90000, 1.10000, 0.90000
28042,'12001001203 ', 138.0000,1,   6,   1,   1,1.00502956, -56.050844, 1.10000, 0.90000, 1.10000, 0.90000
28043,'12001001400 ',  69.0000,1,   6,   1,   1,0.98251146, -57.651994, 1.10000, 0.90000, 1.10000, 0.90000
28044,'12001001514 ',  69.0000,1,   6,   1,   1,0.98283613, -57.625623, 1.10000, 0.90000, 1.10000, 0.90000
28045,'12001001515 ',  69.0000,1,   6,   1,   1,0.98354858, -57.614647, 1.10000, 0.90000, 1.10000, 0.90000
28046,'12001001516 ',  69.0000,1,   6,   1,   1,0.98229855, -57.695953, 1.10000, 0.90000, 1.10000, 0.90000
28047,'12001001517 ',  69.0000,1,   6,   1,   1,0.98138499, -57.756407, 1.10000, 0.90000, 1.10000, 0.90000
28048,'12001001519 ',  69.0000,1,   6,   1,   1,0.98126990, -57.775512, 1.10000, 0.90000, 1.10000, 0.90000
28049,'12001001520 ',  69.0000,1,   6,   1,   1,0.98319066, -57.731361, 1.10000, 0.90000, 1.10000, 0.90000
28050,'12001001521 ',  69.0000,1,   6,   1,   1,0.98224896, -57.753771, 1.10000, 0.90000, 1.10000, 0.90000
28051,'12001001603 ',  69.0000,1,   6,   1,   1,0.98768437, -57.556877, 1.10000, 0.90000, 1.10000, 0.90000
28052,'12001001604 ',  69.0000,1,   6,   1,   1,0.98508579, -57.666017, 1.10000, 0.90000, 1.10000, 0.90000
28053,'12001001701 ',  69.0000,1,   6,   1,   1,0.98840147, -57.584328, 1.10000, 0.90000, 1.10000, 0.90000
28054,'12001001702 ',  69.0000,1,   6,   1,   1,0.98585963, -57.694622, 1.10000, 0.90000, 1.10000, 0.90000
28055,'12001001801 ', 138.0000,1,   6,   1,   1,0.99883741, -57.620500, 1.10000, 0.90000, 1.10000, 0.90000
28056,'12001001802 ',  69.0000,1,   6,   1,   1,1.00629854, -56.980792, 1.10000, 0.90000, 1.10000, 0.90000
28057,'12001001803 ', 138.0000,1,   6,   1,   1,1.00945973, -56.244255, 1.10000, 0.90000, 1.10000, 0.90000
28058,'12001001805 ', 138.0000,1,   6,   1,   1,1.00999856, -56.767068, 1.10000, 0.90000, 1.10000, 0.90000
28059,'12001001806 ', 138.0000,1,   6,   1,   1,1.00115418, -57.319228, 1.10000, 0.90000, 1.10000, 0.90000
28060,'12001001811 ',  69.0000,1,   6,   1,   1,0.99100697, -57.520172, 1.10000, 0.90000, 1.10000, 0.90000
28061,'12001001813 ',  69.0000,1,   6,   1,   1,0.99576235, -57.290995, 1.10000, 0.90000, 1.10000, 0.90000
28062,'12001001814 ', 138.0000,1,   6,   1,   1,1.01270390, -56.319353, 1.10000, 0.90000, 1.10000, 0.90000
28063,'12001001902 ',  69.0000,1,   6,   1,   1,0.98041433, -57.901064, 1.10000, 0.90000, 1.10000, 0.90000
28064,'12001001907 ',  69.0000,1,   6,   1,   1,0.98627645, -56.534415, 1.10000, 0.90000, 1.10000, 0.90000
28065,'12001001908 ', 500.0000,1,   6,   1,   1,1.01079488, -53.598660, 1.10000, 0.90000, 1.10000, 0.90000
28066,'12001002000 ', 138.0000,1,   6,   1,   1,0.99390000, -55.677868, 1.10000, 0.90000, 1.10000, 0.90000
28067,'12001002101 ',  69.0000,1,   6,   1,   1,0.98655909, -56.787661, 1.10000, 0.90000, 1.10000, 0.90000
28068,'12001002102 ',  69.0000,1,   6,   1,   1,0.98425108, -56.820613, 1.10000, 0.90000, 1.10000, 0.90000
28069,'12001002201 ',  69.0000,1,   6,   1,   1,0.98494107, -57.921548, 1.10000, 0.90000, 1.10000, 0.90000
28070,'12001002202 ', 138.0000,1,   6,   1,   1,0.99375594, -56.889305, 1.10000, 0.90000, 1.10000, 0.90000
28071,'12001002204 ', 138.0000,1,   6,   1,   1,1.00510728, -56.568293, 1.10000, 0.90000, 1.10000, 0.90000
28072,'12001002205 ', 138.0000,1,   6,   1,   1,0.99602145, -56.693719, 1.10000, 0.90000, 1.10000, 0.90000
28073,'12001002207 ',  69.0000,1,   6,   1,   1,0.98016095, -57.986148, 1.10000, 0.90000, 1.10000, 0.90000
28074,'12001002208 ',  69.0000,1,   6,   1,   1,0.97865349, -58.006222, 1.10000, 0.90000, 1.10000, 0.90000
28075,'12001002209 ', 138.0000,1,   6,   1,   1,0.99208724, -56.722952, 1.10000, 0.90000, 1.10000, 0.90000
28076,'12001002210 ', 138.0000,1,   6,   1,   1,0.99405551, -57.123440, 1.10000, 0.90000, 1.10000, 0.90000
28077,'12001002217 ',  69.0000,1,   6,   1,   1,0.98150617, -57.926233, 1.10000, 0.90000, 1.10000, 0.90000
28078,'12001002218 ',  69.0000,1,   6,   1,   1,0.98076683, -57.936212, 1.10000, 0.90000, 1.10000, 0.90000
28079,'12001002219 ',  69.0000,1,   6,   1,   1,0.98260999, -57.764255, 1.10000, 0.90000, 1.10000, 0.90000
28080,'12001002220 ',  69.0000,1,   6,   1,   1,0.97847211, -57.955835, 1.10000, 0.90000, 1.10000, 0.90000
28081,'12001110800 ',  69.0000,1,   6,   1,   1,0.98043382, -57.763156, 1.10000, 0.90000, 1.10000, 0.90000
28082,'12003040101 ', 138.0000,1,   6,   1,   1,0.99681610, -53.819944, 1.10000, 0.90000, 1.10000, 0.90000
28083,'12003040102 ',  69.0000,1,   6,   1,   1,0.95533377, -58.221352, 1.10000, 0.90000, 1.10000, 0.90000
28084,'12003040201 ',  69.0000,1,   6,   1,   1,0.95911324, -57.647323, 1.10000, 0.90000, 1.10000, 0.90000
28085,'12003040202 ',  69.0000,1,   6,   1,   1,0.96793801, -56.655695, 1.10000, 0.90000, 1.10000, 0.90000
28086,'12005000201 ',  69.0000,1,   6,   1,   1,0.96662509, -84.330433, 1.10000, 0.90000, 1.10000, 0.90000
28087,'12005000202 ', 138.0000,1,   6,   1,   1,1.00310278, -81.196066, 1.10000, 0.90000, 1.10000, 0.90000
28088,'12005000300 ', 230.0000,1,   6,   1,   1,0.99889112, -80.441023, 1.10000, 0.90000, 1.10000, 0.90000
28089,'12005000400 ', 138.0000,1,   6,   1,   1,0.99010432, -81.543135, 1.10000, 0.90000, 1.10000, 0.90000
28090,'12005000500 ',  69.0000,1,   6,   1,   1,0.95915109, -84.533474, 1.10000, 0.90000, 1.10000, 0.90000
28091,'12005000600 ',  69.0000,1,   6,   1,   1,0.95982987, -84.121935, 1.10000, 0.90000, 1.10000, 0.90000
28092,'12005000700 ', 138.0000,1,   6,   1,   1,0.97995925, -82.676086, 1.10000, 0.90000, 1.10000, 0.90000
28093,'12005000803 ', 138.0000,1,   6,   1,   1,0.98034525, -82.721944, 1.10000, 0.90000, 1.10000, 0.90000
28094,'12005000804 ',  69.0000,1,   6,   1,   1,0.96657413, -84.025738, 1.10000, 0.90000, 1.10000, 0.90000
28095,'12005000805 ',  69.0000,1,   6,   1,   1,0.96738786, -83.964171, 1.10000, 0.90000, 1.10000, 0.90000
28096,'12005000806 ',  69.0000,1,   6,   1,   1,0.96628785, -84.013260, 1.10000, 0.90000, 1.10000, 0.90000
28097,'12005000900 ',  69.0000,1,   6,   1,   1,0.97690225, -83.525243, 1.10000, 0.90000, 1.10000, 0.90000
28098,'12005001000 ',  69.0000,1,   6,   1,   1,0.97883809, -83.453075, 1.10000, 0.90000, 1.10000, 0.90000
28099,'12005001100 ', 138.0000,1,   6,   1,   1,0.98188323, -82.619997, 1.10000, 0.90000, 1.10000, 0.90000
28100,'12005001200 ', 138.0000,1,   6,   1,   1,0.98370177, -82.501739, 1.10000, 0.90000, 1.10000, 0.90000
28101,'12005001301 ', 138.0000,1,   6,   1,   1,0.98896664, -82.118217, 1.10000, 0.90000, 1.10000, 0.90000
28102,'12005001302 ',  69.0000,1,   6,   1,   1,0.98180896, -82.972947, 1.10000, 0.90000, 1.10000, 0.90000
28103,'12005001402 ', 138.0000,1,   6,   1,   1,0.99208611, -81.862201, 1.10000, 0.90000, 1.10000, 0.90000
28104,'12005001403 ', 138.0000,1,   6,   1,   1,0.99630374, -81.646217, 1.10000, 0.90000, 1.10000, 0.90000
28105,'12005001404 ', 138.0000,1,   6,   1,   1,0.99893594, -81.581426, 1.10000, 0.90000, 1.10000, 0.90000
28106,'12005001501 ',  69.0000,1,   6,   1,   1,0.98488975, -82.953973, 1.10000, 0.90000, 1.10000, 0.90000
28107,'12005001502 ',  69.0000,1,   6,   1,   1,0.98412091, -82.983677, 1.10000, 0.90000, 1.10000, 0.90000
28108,'12005001600 ', 138.0000,1,   6,   1,   1,0.99548262, -81.828262, 1.10000, 0.90000, 1.10000, 0.90000
28109,'12005001700 ',  69.0000,1,   6,   1,   1,0.97982866, -83.350035, 1.10000, 0.90000, 1.10000, 0.90000
28110,'12005001800 ',  69.0000,1,   6,   1,   1,0.97954959, -83.430638, 1.10000, 0.90000, 1.10000, 0.90000
28111,'12005001900 ',  69.0000,1,   6,   1,   1,0.97997862, -83.324777, 1.10000, 0.90000, 1.10000, 0.90000
28112,'12005002000 ', 230.0000,1,   6,   1,   1,1.01118207, -80.215039, 1.10000, 0.90000, 1.10000, 0.90000
28113,'12005002200 ',  69.0000,1,   6,   1,   1,0.98468333, -83.002699, 1.10000, 0.90000, 1.10000, 0.90000
28114,'12005002300 ',  69.0000,1,   6,   1,   1,0.98182333, -83.062791, 1.10000, 0.90000, 1.10000, 0.90000
28115,'12005002400 ',  69.0000,1,   6,   1,   1,0.98076642, -83.092318, 1.10000, 0.90000, 1.10000, 0.90000
28116,'12005002500 ',  69.0000,1,   6,   1,   1,0.98174304, -83.051808, 1.10000, 0.90000, 1.10000, 0.90000
28117,'12005002601 ',  69.0000,1,   6,   1,   1,0.97943020, -83.159554, 1.10000, 0.90000, 1.10000, 0.90000
28118,'12005002603 ',  69.0000,1,   6,   1,   1,0.98185515, -83.094838, 1.10000, 0.90000, 1.10000, 0.90000
28119,'12005002604 ',  69.0000,1,   6,   1,   1,0.97981751, -83.186930, 1.10000, 0.90000, 1.10000, 0.90000
28120,'12005002605 ',  69.0000,1,   6,   1,   1,0.97950321, -83.189218, 1.10000, 0.90000, 1.10000, 0.90000
...
0 / END OF BUS DATA, BEGIN LOAD DATA
27811,'1 ',1,   6,   1,     0.000,     0.000,     0.000,     0.000,     0.000,     0.000,   1,1, 0
27812,'1 ',1,   6,   1,     0.000,     0.000,     0.000,     0.000,     0.000,     0.000,   1,1, 0
27814,'1 ',1,   6,   1,     0.000,     0.000,     0.000,     0.000,     0.000,     0.000,   1,1, 0
27815,'1 ',1,   6,   1,     0.000,     0.000,     0.000,     0.000,     0.000,     0.000,   1,1, 0
27819,'1 ',1,   6,   1,     0.000,     0.000,     0.000,     0.000,     0.000,     0.000,   1,1, 0
27821,'1 ',1,   6,   1,     0.000,     0.000,     0.000,     0.000,     0.000,     0.000,   1,1, 0
27822,'1 ',1,   6,   1,     0.000,     0.000,     0.000,     0.000,     0.000,     0.000,   1,1, 0
27823,'1 ',1,   6,   1,     0.000,     0.000,     0.000,     0.000,     0.000,     0.000,   1,1, 0
27827,'1 ',1,   6,   1,     0.000,     0.000,     0.000,     0.000,     0.000,     0.000,   1,1, 0
27829,'1 ',1,   6,   1,     0.000,     0.000,     0.000,     0.000,     0.000,     0.000,   1,1, 0
27830,'1 ',1,   6,   1,     0.000,     0.000,     0.000,     0.000,     0.000,     0.000,   1,1, 0
27834,'1 ',1,   6,   1,     0.000,     0.000,     0.000,     0.000,     0.000,     0.000,   1,1, 0
27836,'1 ',1,   6,   1,     0.000,     0.000,     0.000,     0.000,     0.000,     0.000,   1,1, 0
27837,'1 ',1,   6,   1,     0.000,     0.000,     0.000,     0.000,     0.000,     0.000,   1,1, 0
27838,'1 ',1,   6,   1,     0.000,     0.000,     0.000,     0.000,     0.000,     0.000,   1,1, 0
27840,'1 ',1,   6,   1,     0.000,     0.000,     0.000,     0.000,     0.000,     0.000,   1,1, 0
27846,'1 ',1,   6,   1,     0.000,     0.000,     0.000,     0.000,     0.000,     0.000,   1,1, 0
27847,'1 ',1,   6,   1,     0.000,     0.000,     0.000,     0.000,     0.000,     0.000,   1,1, 0
27848,'1 ',1,   6,   1,     0.000,     0.000,     0.000,     0.000,     0.000,     0.000,   1,1, 0
27849,'1 ',1,   6,   1,     0.000,     0.000,     0.000,     0.000,     0.000,     0.000,   1,1, 0
27850,'1 ',1,   6,   1,     0.000,     0.000,     0.000,     0.000,     0.000,     0.000,   1,1, 0
27852,'1 ',1,   6,   1,     0.000,     0.000,     0.000,     0.000,     0.000,     0.000,   1,1, 0
27853,'1 ',1,   6,   1,     0.000,     0.000,     0.000,     0.000,     0.000,     0.000,   1,1, 0
27861,'1 ',1,   6,   1,     0.000,     0.000,     0.000,     0.000,     0.000,     0.000,   1,1, 0
27862,'1 ',1,   6,   1,     0.000,     0.000,     0.000,     0.000,     0.000,     0.000,   1,1, 0
27866,'1 ',1,   6,   1,     0.000,     0.000,     0.000,     0.000,     0.000,     0.000,   1,1, 0
27867,'1 ',1,   6,   1,     0.000,     0.000,     0.000,     0.000,     0.000,     0.000,   1,1, 0
27871,'1 ',1,   6,   1,     0.000,     0.000,     0.000,     0.000,     0.000,     0.000,   1,1, 0
27879,'1 ',1,   6,   1,     0.000,     0.000,     0.000,     0.000,     0.000,     0.000,   1,1, 0
27882,'1 ',1,   6,   1,     0.000,     0.000,     0.000,     0.000,     0.000,     0.000,   1,1, 0
27883,'1 ',1,   6,   1,     0.000,     0.000,     0.000,     0.000,     0.000,     0.000,   1,1, 0
27884,'1 ',1,   6,   1,     0.000,     0.000,     0.000,     0.000,     0.000,     0.000,   1,1, 0
27885,'1 ',1,   6,   1,     0.000,     0.000,     0.000,     0.000,     0.000,     0.000,   1,1, 0
27886,'1 ',1,   6,   1,     0.000,     0.000,     0.000,     0.000,     0.000,     0.000,   1,1, 0
27887,'1 ',1,   6,   1,     0.000,     0.000,     0.000,     0.000,     0.000,     0.000,   1,1, 0
27888,'1 ',1,   6,   1,     0.000,     0.000,     0.000,     0.000,     0.000,     0.000,   1,1, 0
27890,'1 ',1,   6,   1,     0.000,     0.000,     0.000,     0.000,     0.000,     0.000,   1,1, 0
27892,'1 ',1,   6,   1,     0.000,     0.000,     0.000,     0.000,     0.000,     0.000,   1,1, 0
27893,'1 ',1,   6,   1,     0.000,     0.000,     0.000,     0.000,     0.000,     0.000,   1,1, 0
27895,'1 ',1,   6,   1,     0.000,     0.000,     0.000,     0.000,     0.000,     0.000,   1,1, 0
27897,'1 ',1,   6,   1,     0.000,     0.000,     0.000,     0.000,     0.000,     0.000,   1,1, 0
27899,'1 ',1,   6,   1,     0.000,     0.000,     0.000,     0.000,     0.000,     0.000,   1,1, 0
27901,'1 ',1,   6,   1,     0.000,     0.000,     0.000,     0.000,     0.000,     0.000,   1,1, 0
27903,'1 ',1,   6,   1,     0.000,     0.000,     0.000,     0.000,     0.000,     0.000,   1,1, 0
27904,'1 ',1,   6,   1,     0.000,     0.000,     0.000,     0.000,     0.000,     0.000,   1,1, 0
27905,'1 ',1,   6,   1,     0.000,     0.000,     0.000,     0.000,     0.000,     0.000,   1,1, 0
27906,'1 ',1,   6,   1,     0.000,     0.000,     0.000,     0.000,     0.000,     0.000,   1,1, 0
27907,'1 ',1,   6,   1,     0.000,     0.000,     0.000,     0.000,     0.000,     0.000,   1,1, 0
27908,'1 ',1,   6,   1,     0.000,     0.000,     0.000,     0.000,     0.000,     0.000,   1,1, 0
27910,'1 ',1,   6,   1,     0.000,     0.000,     0.000,     0.000,     0.000,     0.000,   1,1, 0
27911,'1 ',1,   6,   1,     0.000,     0.000,     0.000,     0.000,     0.000,     0.000,   1,1, 0
27912,'1 ',1,   6,   1,     0.000,     0.000,     0.000,     0.000,     0.000,     0.000,   1,1, 0
27913,'1 ',1,   6,   1,     0.000,     0.000,     0.000,     0.000,     0.000,     0.000,   1,1, 0
28026,'1 ',1,   6,   1,    10.730,     0.000,     0.000,     0.000,     0.000,    -6.590,   1,1, 0
28028,'1 ',1,   6,   1,    17.580,     0.000,     0.000,     0.000,     0.000,    -9.070,   1,1, 0
28030,'1 ',1,   6,   1,    13.290,     0.000,     0.000,     0.000,     0.000,    -7.370,   1,1, 0
28031,'1 ',1,   6,   1,     7.490,     0.000,     0.000,     0.000,     0.000,    -3.750,   1,1, 0
28033,'1 ',1,   6,   1,    10.990,     0.000,     0.000,     0.000,     0.000,    -5.500,   1,1, 0
28034,'1 ',1,   6,   1,     5.870,     0.000,     0.000,     0.000,     0.000,    -3.300,   1,1, 0
28035,'1 ',1,   6,   1,    12.100,     0.000,     0.000,     0.000,     0.000,    -6.760,   1,1, 0
28036,'1 ',1,   6,   1,     3.400,     0.000,     0.000,     0.000,     0.000,    -2.030,   1,1, 0
28037,'1 ',1,   6,   1,     9.320,     0.000,     0.000,     0.000,     0.000,    -5.950,   1,1, 0
28039,'1 ',1,   6,   1,     7.740,     0.000,     0.000,     0.000,     0.000,    -4.550,   1,1, 0
28040,'1 ',1,   6,   1,     4.410,     0.000,     0.000,     0.000,     0.000,    -2.290,   1,1, 0
28042,'1 ',1,   6,   1,     6.640,     0.000,     0.000,     0.000,     0.000,    -3.320,   1,1, 0
28043,'1 ',1,   6,   1,     6.630,     0.000,     0.000,     0.000,     0.000,    -3.540,   1,1, 0
28044,'1 ',1,   6,   1,     4.760,     0.000,     0.000,     0.000,     0.000,    -2.270,   1,1, 0
28045,'1 ',1,   6,   1,     7.730,     0.000,     0.000,     0.000,     0.000,    -4.490,   1,1, 0
28046,'1 ',1,   6,   1,     2.540,     0.000,     0.000,     0.000,     0.000,    -1.420,   1,1, 0
28047,'1 ',1,   6,   1,     6.080,     0.000,     0.000,     0.000,     0.000,    -3.190,   1,1, 0
28048,'1 ',1,   6,   1,     7.540,     0.000,     0.000,     0.000,     0.000,    -4.190,   1,1, 0
28049,'1 ',1,   6,   1,     3.180,     0.000,     0.000,     0.000,     0.000,    -1.620,   1,1, 0
28050,'1 ',1,   6,   1,    13.280,     0.000,     0.000,     0.000,     0.000,    -6.130,   1,1, 0
28051,'1 ',1,   6,   1,     2.350,     0.000,     0.000,     0.000,     0.000,    -1.440,   1,1, 0
28052,'1 ',1,   6,   1,    13.050,     0.000,     0.000,     0.000,     0.000,    -8.070,   1,1, 0
28053,'1 ',1,   6,   1,    11.470,     0.000,     0.000,     0.000,     0.000,    -6.470,   1,1, 0
28054,'1 ',1,   6,   1,     9.740,     0.000,     0.000,     0.000,     0.000,    -5.160,   1,1, 0
28055,'1 ',1,   6,   1,    11.290,     0.000,     0.000,     0.000,     0.000,    -6.460,   1,1, 0
28056,'1 ',1,   6,   1,    10.730,     0.000,     0.000,     0.000,     0.000,    -5.700,   1,1, 0
28058,'1 ',1,   6,   1,    11.820,     0.000,     0.000,     0.000,     0.000,    -4.940,   1,1, 0
28059,'1 ',1,   6,   1,    18.770,     0.000,     0.000,     0.000,     0.000,   -11.420,   1,1, 0
28060,'1 ',1,   6,   1,     8.020,     0.000,     0.000,     0.000,     0.000,    -4.860,   1,1, 0
28061,'1 ',1,   6,   1,     3.150,     0.000,     0.000,     0.000,     0.000,    -1.710,   1,1, 0
28063,'1 ',1,   6,   1,    20.050,     0.000,     0.000,     0.000,     0.000,    -7.800,   1,1, 0
28064,'1 ',1,   6,   1,     5.660,     0.000,     0.000,     0.000,     0.000,    -3.160,   1,1, 0
28065,'1 ',1,   6,   1,    54.560,     0.000,     0.000,     0.000,     0.000,   -30.800,   1,1, 0
28067,'1 ',1,   6,   1,     2.790,     0.000,     0.000,     0.000,     0.000,    -1.590,   1,1, 0
28068,'1 ',1,   6,   1,     1.330,     0.000,     0.000,     0.000,     0.000,    -0.640,   1,1, 0
28069,'1 ',1,   6,   1,     9.900,     0.000,     0.000,     0.000,     0.000,    -4.470,   1,1, 0
28073,'1 ',1,   6,   1,     4.940,     0.000,     0.000,     0.000,     0.000,    -2.560,   1,1, 0
28074,'1 ',1,   6,   1,     3.070,     0.000,     0.000,     0.000,     0.000,    -1.530,   1,1, 0
28076,'1 ',1,   6,   1,     7.560,     0.000,     0.000,     0.000,     0.000,    -3.860,   1,1, 0
28077,'1 ',1,   6,   1,     8.870,     0.000,     0.000,     0.000,     0.000,    -4.690,   1,1, 0
28078,'1 ',1,   6,   1,     3.030,     0.000,     0.000,     0.000,     0.000,    -1.500,   1,1, 0
28079,'1 ',1,   6,   1,    17.650,     0.000,     0.000,     0.000,     0.000,    -8.120,   1,1, 0
28080,'1 ',1,   6,   1,    10.140,     0.000,     0.000,     0.000,     0.000,    -5.190,   1,1, 0
28081,'1 ',1,   6,   1,     2.640,     0.000,     0.000,     0.000,     0.000,    -1.690,   1,1, 0
28083,'1 ',1,   6,   1,    14.670,     0.000,     0.000,     0.000,     0.000,    -6.870,   1,1, 0
28084,'1 ',1,   6,   1,    12.820,     0.000,     0.000,     0.000,     0.000,    -3.200,   1,1, 0
28085,'1 ',1,   6,   1,     8.310,     0.000,     0.000,     0.000,     0.000,    -4.810,   1,1, 0
28086,'1 ',1,   6,   1,    10.230,     0.000,     0.000,     0.000,     0.000,    -4.570,   1,1, 0
28089,'1 ',1,   6,   1,    10.390,     0.000,     0.000,     0.000,     0.000,    -6.610,   1,1, 0
28090,'1 ',1,   6,   1,    14.920,     0.000,     0.000,     0.000,     0.000,    -7.930,   1,1, 0
28091,'1 ',1,   6,   1,     1.390,     0.000,     0.000,     0.000,     0.000,    -0.750,   1,1, 0
28094,'1 ',1,   6,   1,     4.730,     0.000,     0.000,     0.000,     0.000,    -2.540,   1,1, 0
28095,'1 ',1,   6,   1,     6.030,     0.000,     0.000,     0.000,     0.000,    -3.540,   1,1, 0
28096,'1 ',1,   6,   1,     4.350,     0.000,     0.000,     0.000,     0.000,    -2.140,   1,1, 0
28097,'1 ',1,   6,   1,     9.300,     0.000,     0.000,     0.000,     0.000,    -5.800,   1,1, 0
28098,'1 ',1,   6,   1,    23.610,     0.000,     0.000,     0.000,     0.000,    -8.390,   1,1, 0
28099,'1 ',1,   6,   1,     7.950,     0.000,     0.000,     0.000,     0.000,    -4.400,   1,1, 0
28102,'1 ',1,   6,   1,    19.630,     0.000,     0.000,     0.000,     0.000,    -9.850,   1,1, 0
28103,'1 ',1,   6,   1,     9.230,     0.000,     0.000,     0.000,     0.000,    -5.640,   1,1, 0
28106,'1 ',1,   6,   1,    15.860,     0.000,     0.000,     0.000,     0.000,    -7.990,   1,1, 0
28107,'1 ',1,   6,   1,    20.850,     0.000,     0.000,     0.000,     0.000,    -9.540,   1,1, 0
28109,'1 ',1,   6,   1,     8.510,     0.000,     0.000,     0.000,     0.000,    -4.330,   1,1, 0
28110,'1 ',1,   6,   1,    15.930,     0.000,     0.000,     0.000,     0.000,    -9.160,   1,1, 0
28111,'1 ',1,   6,   1,     6.500,     0.000,     0.000,     0.000,     0.000,    -3.680,   1,1, 0
28113,'1 ',1,   6,   1,    15.010,     0.000,     0.000,     0.000,     0.000,    -7.570,   1,1, 0
28114,'1 ',1,   6,   1,     6.660,     0.000,     0.000,     0.000,     0.000,    -3.620,   1,1, 0
28115,'1 ',1,   6,   1,    10.420,     0.000,     0.000,     0.000,     0.000,    -5.590,   1,1, 0
28116,'1 ',1,   6,   1,     6.170,     0.000,     0.000,     0.000,     0.000,    -3.860,   1,1, 0
28117,'1 ',1,   6,   1,     9.540,     0.000,     0.000,     0.000,     0.000,    -5.720,   1,1, 0
28118,'1 ',1,   6,   1,     9.040,     0.000,     0.000,     0.000,     0.000,    -4.310,   1,1, 0
28119,'1 ',1,   6,   1,     8.880,     0.000,     0.000,     0.000,     0.000,    -5.140,   1,1, 0
28120,'1 ',1,   6,   1,     1.400,     0.000,     0.000,     0.000,     0.000,    -0.810,   1,1, 0
28121,'1 ',1,   6,   1,     1.870,     0.000,     0.000,     0.000,     0.000,    -0.910,   1,1, 0
28122,'1 ',1,   6,   1,     4.330,     0.000,     0.000,     0.000,     0.000,    -1.830,   1,1, 0
28123,'1 ',1,   6,   1,     3.480,     0.000,     0.000,     0.000,     0.000,    -1.920,   1,1, 0
28124,'1 ',1,   6,   1,     7.110,     0.000,     0.000,     0.000,     0.000,    -4.320,   1,1, 0
28126,'1 ',1,   6,   1,     5.400,     0.000,     0.000,     0.000,     0.000,    -2.530,   1,1, 0
28128,'1 ',1,   6,   1,     6.730,     0.000,     0.000,     0.000,     0.000,    -3.950,   1,1, 0
28129,'1 ',1,   6,   1,    20.190,     0.000,     0.000,     0.000,     0.000,   -12.280,   1,1, 0
28130,'1 ',1,   6,   1,    28.770,     0.000,     0.000,     0.000,     0.000,   -14.640,   1,1, 0
28132,'1 ',1,   6,   1,    11.010,     0.000,     0.000,     0.000,     0.000,    -2.750,   1,1, 0
28134,'1 ',1,   6,   1,    11.620,     0.000,     0.000,     0.000,     0.000,    -5.650,   1,1, 0
28136,'1 ',1,   6,   1,     6.440,     0.000,     0.000,     0.000,     0.000,    -3.840,   1,1, 0
28140,'1 ',1,   6,   1,     9.970,     0.000,     0.000,     0.000,     0.000,    -4.700,   1,1, 0
28141,'1 ',1,   6,   1,     5.420,     0.000,     0.000,     0.000,     0.000,    -3.440,   1,1, 0
28142,'1 ',1,   6,   1,     5.760,     0.000,     0.000,     0.000,     0.000,    -3.140,   1,1, 0
28143,'1 ',1,   6,   1,    14.430,     0.000,     0.000,     0.000,     0.000,    -8.680,   1,1, 0
28144,'1 ',1,   6,   1,    10.850,     0.000,     0.000,     0.000,     0.000,    -5.350,   1,1, 0
28146,'1 ',1,   6,   1,    16.690,     0.000,     0.000,     0.000,     0.000,    -8.790,   1,1, 0
28147,'1 ',1,   6,   1,     8.250,     0.000,     0.000,     0.000,     0.000,    -5.170,   1,1, 0
28149,'1 ',1,   6,   1,    12.240,     0.000,     0.000,     0.000,     0.000,    -5.580,   1,1, 0
28150,'1 ',1,   6,   1,     8.070,     0.000,     0.000,     0.000,     0.000,    -4.220,   1,1, 0
28152,'1 ',1,   6,   1,     5.740,     0.000,     0.000,     0.000,     0.000,    -2.930,   1,1, 0
28153,'1 ',1,   6,   1,     5.100,     0.000,     0.000,     0.000,     0.000,    -3.250,   1,1, 0
28155,'1 ',1,   6,   1,    14.260,     0.000,     0.000,     0.000,     0.000,    -7.390,   1,1, 0
28156,'1 ',1,   6,   1,     8.950,     0.000,     0.000,     0.000,     0.000,    -4.260,   1,1, 0
28158,'1 ',1,   6,   1,     9.320,     0.000,     0.000,     0.000,     0.000,    -4.900,   1,1, 0
28159,'1 ',1,   6,   1,     5.150,     0.000,     0.000,     0.000,     0.000,    -2.700,   1,1, 0
28161,'1 ',1,   6,   1,     9.300,     0.000,     0.000,     0.000,     0.000,    -4.700,   1,1, 0
28163,'1 ',1,   6,   1,     4.810,     0.000,     0.000,     0.000,     0.000,    -2.800,   1,1, 0
28164,'1 ',1,   6,   1,    13.740,     0.000,     0.000,     0.000,     0.000,    -8.680,   1,1, 0
28165,'1 ',1,   6,   1,     6.820,     0.000,     0.000,     0.000,     0.000,    -3.480,   1,1, 0
28166,'1 ',1,   6,   1,    10.420,     0.000,     0.000,     0.000,     0.000,    -5.950,   1,1, 0
28167,'1 ',1,   6,   1,     7.650,     0.000,     0.000,     0.000,     0.000,    -3.690,   1,1, 0
28168,'1 ',1,   6,   1,     6.970,     0.000,     0.000,     0.000,     0.000,    -4.100,   1,1, 0
28169,'1 ',1,   6,   1,     6.020,     0.000,     0.000,     0.000,     0.000,    -3.620,   1,1, 0
28172,'1 ',1,   6,   1,    18.360,     0.000,     0.000,     0.000,     0.000,   -10.250,   1,1, 0
28173,'1 ',1,   6,   1,     5.610,     0.000,     0.000,     0.000,     0.000,    -3.030,   1,1, 0
28174,'1 ',1,   6,   1,    14.050,     0.000,     0.000,     0.000,     0.000,    -8.690,   1,1, 0
28175,'1 ',1,   6,   1,     9.010,     0.000,     0.000,     0.000,     0.000,    -5.470,   1,1, 0
28176,'1 ',1,   6,   1,     8.740,     0.000,     0.000,     0.000,     0.000,    -5.440,   1,1, 0
28177,'1 ',1,   6,   1,     5.120,     0.000,     0.000,     0.000,     0.000,    -2.760,   1,1, 0
28183,'1 ',1,   6,   1,     5.480,     0.000,     0.000,     0.000,     0.000,    -2.700,   1,1, 0
28184,'1 ',1,   6,   1,     3.750,     0.000,     0.000,     0.000,     0.000,    -1.930,   1,1, 0
28186,'1 ',1,   6,   1,     6.230,     0.000,     0.000,     0.000,     0.000,    -3.830,   1,1, 0
28187,'1 ',1,   6,   1,    10.740,     0.000,     0.000,     0.000,     0.000,    -6.010,   1,1, 0
28189,'1 ',1,   6,   1,    23.800,     0.000,     0.000,     0.000,     0.000,    -8.800,   1,1, 0
28190,'1 ',1,   6,   1,     3.180,     0.000,     0.000,     0.000,     0.000,    -1.560,   1,1, 0
28191,'1 ',1,   6,   1,     8.790,     0.000,     0.000,     0.000,     0.000,    -5.390,   1,1, 0
28193,'1 ',1,   6,   1,     8.190,     0.000,     0.000,     0.000,     0.000,    -5.200,   1,1, 0
28195,'1 ',1,   6,   1,     4.830,     0.000,     0.000,     0.000,     0.000,    -3.080,   1,1, 0
28196,'1 ',1,   6,   1,     7.140,     0.000,     0.000,     0.000,     0.000,    -3.850,   1,1, 0
28197,'1 ',1,   6,   1,     3.340,     0.000,     0.000,     0.000,     0.000,    -1.680,   1,1, 0
28198,'1 ',1,   6,   1,     5.020,     0.000,     0.000,     0.000,     0.000,    -2.630,   1,1, 0
28199,'1 ',1,   6,   1,     2.250,     0.000,     0.000,     0.000,     0.000,    -1.100,   1,1, 0
28200,'1 ',1,   6,   1,     5.690,     0.000,     0.000,     0.000,     0.000,    -3.400,   1,1, 0
28201,'1 ',1,   6,   1,     5.510,     0.000,     0.000,     0.000,     0.000,    -3.370,   1,1, 0
28202,'1 ',1,   6,   1,     8.470,     0.000,     0.000,     0.000,     0.000,    -4.320,   1,1, 0
28203,'1 ',1,   6,   1,     5.450,     0.000,     0.000,     0.000,     0.000,    -3.360,   1,1, 0
28204,'1 ',1,   6,   1,     9.430,     0.000,     0.000,     0.000,     0.000,    -5.030,   1,1, 0
28205,'1 ',1,   6,   1,     5.380,     0.000,     0.000,     0.000,     0.000,    -2.820,   1,1, 0
28206,'1 ',1,   6,   1,     5.510,     0.000,     0.000,     0.000,     0.000,    -2.970,   1,1, 0
28207,'1 ',1,   6,   1,     8.840,     0.000,     0.000,     0.000,     0.000,    -4.500,   1,1, 0
28208,'1 ',1,   6,   1,     1.650,     0.000,     0.000,     0.000,     0.000,    -1.050,   1,1, 0
28209,'1 ',1,   6,   1,     7.430,     0.000,     0.000,     0.000,     0.000,    -4.510,   1,1, 0
28210,'1 ',1,   6,   1,     1.930,     0.000,     0.000,     0.000,     0.000,    -1.190,   1,1, 0
28211,'1 ',1,   6,   1,     2.600,     0.000,     0.000,     0.000,     0.000,    -1.330,   1,1, 0
28212,'1 ',1,   6,   1,     5.480,     0.000,     0.000,     0.000,     0.000,    -3.310,   1,1, 0
28213,'1 ',1,   6,   1,     3.830,     0.000,     0.000,     0.000,     0.000,    -2.060,   1,1, 0
28214,'1 ',1,   6,   1,     3.950,     0.000,     0.000,     0.000,     0.000,    -2.260,   1,1, 0
28215,'1 ',1,   6,   1,     5.330,     0.000,     0.000,     0.000,     0.000,    -3.230,   1,1, 0
28216,'1 ',1,   6,   1,     2.870,     0.000,     0.000,     0.000,     0.000,    -1.440,   1,1, 0
28217,'1 ',1,   6,   1,     3.430,     0.000,     0.000,     0.000,     0.000,    -1.780,   1,1, 0
28218,'1 ',1,   6,   1,     6.550,     0.000,     0.000,     0.000,     0.000,    -3.390,   1,1, 0
28221,'1 ',1,   6,   1,     3.550,     0.000,     0.000,     0.000,     0.000,    -2.030,   1,1, 0
28222,'1 ',1,   6,   1,     7.910,     0.000,     0.000,     0.000,     0.000,    -4.030,   1,1, 0
28223,'1 ',1,   6,   1,     9.810,     0.000,     0.000,     0.000,     0.000,    -5.110,   1,1, 0
...
0 / END OF LOAD DATA, BEGIN FIXED SHUNT DATA
0 / END OF FIXED SHUNT DATA, BEGIN GENERATOR DATA
27810,'1 ',  1080.000,   198.717,   523.100,  -360.000,1.02000,    0,   100.000,   0.00000,   1.00000,   0.00000,   0.00000,1.00000,1,  100.0,  1080.000,   987.000,   1,1.0000,   0,1.0000,   0,1.0000,   0,1.0000,0, 1.0000
27810,'2 ',  1080.000,   198.717,   523.100,  -360.000,1.02000,    0,   100.000,   0.00000,   1.00000,   0.00000,   0.00000,1.00000,1,  100.0,  1080.000,   981.000,   1,1.0000,   0,1.0000,   0,1.0000,   0,1.0000,0, 1.0000
27811,'1 ',   399.169,   243.833,   356.400,  -245.300,1.02000,    0,   100.000,   0.00000,   1.00000,   0.00000,   0.00000,1.00000,1,  100.0,   735.900,   350.000,   1,1.0000,   0,1.0000,   0,1.0000,   0,1.0000,0, 1.0000
27811,'2 ',   399.169,   243.833,   356.400,  -245.300,1.02000,    0,   100.000,   0.00000,   1.00000,   0.00000,   0.00000,1.00000,1,  100.0,   735.900,   350.000,   1,1.0000,   0,1.0000,   0,1.0000,   0,1.0000,0, 1.0000
27812,'1 ',   677.216,   165.156,   328.900,  -226.300,1.02000,    0,   100.000,   0.00000,   1.00000,   0.00000,   0.00000,1.00000,1,  100.0,   679.000,   200.000,   1,1.0000,   0,1.0000,   0,1.0000,   0,1.0000,0, 1.0000
27812,'2 ',   446.924,   165.156,   328.900,  -226.300,1.02000,    0,   100.000,   0.00000,   1.00000,   0.00000,   0.00000,1.00000,1,  100.0,   679.000,   200.000,   1,1.0000,   0,1.0000,   0,1.0000,   0,1.0000,0, 1.0000
27813,'1 ',   285.489,   227.601,   269.400,  -185.400,1.02000,    0,   100.000,   0.00000,   1.00000,   0.00000,   0.00000,1.00000,1,  100.0,   556.200,    90.000,   1,1.0000,   0,1.0000,   0,1.0000,   0,1.0000,0, 1.0000
27813,'2 ',   285.489,   227.601,   269.400,  -185.400,1.02000,    0,   100.000,   0.00000,   1.00000,   0.00000,   0.00000,1.00000,1,  100.0,   556.200,    80.000,   1,1.0000,   0,1.0000,   0,1.0000,   0,1.0000,0, 1.0000
27814,'1 ',   168.577,   125.900,   125.900,   -67.700,1.02000,    0,   100.000,   0.00000,   1.00000,   0.00000,   0.00000,1.00000,1,  100.0,   203.200,   155.000,   1,1.0000,   0,1.0000,   0,1.0000,   0,1.0000,0, 1.0000
27814,'2 ',   238.421,   225.000,   225.000,  -154.800,1.02000,    0,   100.000,   0.00000,   1.00000,   0.00000,   0.00000,1.00000,1,  100.0,   464.500,    95.000,   1,1.0000,   0,1.0000,   0,1.0000,   0,1.0000,0, 1.0000
27814,'3 ',   238.421,   225.000,   225.000,  -154.800,1.02000,    0,   100.000,   0.00000,   1.00000,   0.00000,   0.00000,1.00000,1,  100.0,   464.500,    90.000,   1,1.0000,   0,1.0000,   0,1.0000,   0,1.0000,0, 1.0000
27814,'4 ',    77.467,    80.400,    80.400,   -43.300,1.02000,    0,   100.000,   0.00000,   1.00000,   0.00000,   0.00000,1.00000,1,  100.0,   129.800,    68.794,   1,1.0000,   0,1.0000,   0,1.0000,   0,1.0000,0, 1.0000
27815,'1 ',    31.824,    38.400,    38.400,   -20.700,1.02000,    0,   100.000,   0.00000,   1.00000,   0.00000,   0.00000,1.00000,1,  100.0,    62.000,    14.000,   1,1.0000,   0,1.0000,   0,1.0000,   0,1.0000,0, 1.0000
27815,'2 ',   228.669,    89.980,   215.800,  -148.500,1.02000,    0,   100.000,   0.00000,   1.00000,   0.00000,   0.00000,1.00000,1,  100.0,   445.500,   190.000,   1,1.0000,   0,1.0000,   0,1.0000,   0,1.0000,0, 1.0000
27815,'3 ',   228.669,    89.980,   215.800,  -148.500,1.02000,    0,   100.000,   0.00000,   1.00000,   0.00000,   0.00000,1.00000,1,  100.0,   445.500,   185.000,   1,1.0000,   0,1.0000,   0,1.0000,   0,1.0000,0, 1.0000
27815,'4 ',   228.669,    89.980,   215.800,  -148.500,1.02000,    0,   100.000,   0.00000,   1.00000,   0.00000,   0.00000,1.00000,1,  100.0,   445.500,   185.000,   1,1.0000,   0,1.0000,   0,1.0000,   0,1.0000,0, 1.0000
27815,'5 ',   249.457,    89.980,   235.400,  -162.000,1.02000,    0,   100.000,   0.00000,   1.00000,   0.00000,   0.00000,1.00000,1,  100.0,   486.000,   157.000,   1,1.0000,   0,1.0000,   0,1.0000,   0,1.0000,0, 1.0000
27816,'1 ',   442.487,    62.318,   358.000,  -246.400,1.02000,    0,   100.000,   0.00000,   1.00000,   0.00000,   0.00000,1.00000,1,  100.0,   739.200,   225.000,   1,1.0000,   0,1.0000,   0,1.0000,   0,1.0000,0, 1.0000
27816,'2 ',   442.487,    62.318,   358.000,  -246.400,1.02000,    0,   100.000,   0.00000,   1.00000,   0.00000,   0.00000,1.00000,1,  100.0,   739.200,   225.000,   1,1.0000,   0,1.0000,   0,1.0000,   0,1.0000,0, 1.0000
27816,'3 ',   890.400,    62.318,   431.200,  -296.800,1.02000,    0,   100.000,   0.00000,   1.00000,   0.00000,   0.00000,1.00000,1,  100.0,   890.400,   311.640,   1,1.0000,   0,1.0000,   0,1.0000,   0,1.0000,0, 1.0000
27816,'4 ',   226.102,    62.318,   213.300,  -146.800,1.02000,    0,   100.000,   0.00000,   1.00000,   0.00000,   0.00000,1.00000,1,  100.0,   440.500,   100.000,   1,1.0000,   0,1.0000,   0,1.0000,   0,1.0000,0, 1.0000
27816,'5 ',   268.859,    62.318,   253.700,  -174.600,1.02000,    0,   100.000,   0.00000,   1.00000,   0.00000,   0.00000,1.00000,1,  100.0,   523.800,   120.000,   1,1.0000,   0,1.0000,   0,1.0000,   0,1.0000,0, 1.0000
27817,'1 ',   206.341,    73.109,   182.000,  -182.000,1.02000,    0,   100.000,   0.00000,   1.00000,   0.00000,   0.00000,1.00000,1,  100.0,   402.000,    80.400,   1,1.0000,   0,1.0000,   0,1.0000,   0,1.0000,0, 1.0000
27817,'2 ',   206.341,    73.109,   182.000,  -182.000,1.02000,    0,   100.000,   0.00000,   1.00000,   0.00000,   0.00000,1.00000,1,  100.0,   402.000,    80.400,   1,1.0000,   0,1.0000,   0,1.0000,   0,1.0000,0, 1.0000
27819,'1 ',    64.674,    61.000,    61.000,   -42.000,1.02000,    0,   100.000,   0.00000,   1.00000,   0.00000,   0.00000,1.00000,1,  100.0,   126.000,    30.000,   1,1.0000,   0,1.0000,   0,1.0000,   0,1.0000,0, 1.0000
27819,'2 ',    13.653,    12.900,    12.900,    -8.900,1.02000,    0,   100.000,   0.00000,   1.00000,   0.00000,   0.00000,1.00000,1,  100.0,    26.600,     3.000,   1,1.0000,   0,1.0000,   0,1.0000,   0,1.0000,0, 1.0000
27819,'3 ',    53.125,    50.100,    50.100,   -34.500,1.02000,    0,   100.000,   0.00000,   1.00000,   0.00000,   0.00000,1.00000,1,  100.0,   103.500,    25.000,   1,1.0000,   0,1.0000,   0,1.0000,   0,1.0000,0, 1.0000
27819,'4 ',   156.637,   120.600,   120.600,   -83.000,1.02000,    0,   100.000,   0.00000,   1.00000,   0.00000,   0.00000,1.00000,1,  100.0,   249.000,   140.000,   1,1.0000,   0,1.0000,   0,1.0000,   0,1.0000,0, 1.0000
27819,'5 ',   204.308,   152.782,   176.200,  -121.300,1.02000,    0,   100.000,   0.00000,   1.00000,   0.00000,   0.00000,1.00000,1,  100.0,   363.800,   180.000,   1,1.0000,   0,1.0000,   0,1.0000,   0,1.0000,0, 1.0000
27819,'6 ',   120.000,    58.100,    58.100,   -40.000,1.02000,    0,   100.000,   0.00000,   1.00000,   0.00000,   0.00000,1.00000,1,  100.0,   120.000,   120.000,   1,1.0000,   0,1.0000,   0,1.0000,   0,1.0000,0, 1.0000
27820,'1 ',   135.760,   140.500,   140.500,  -140.500,1.02000,    0,   100.000,   0.00000,   1.00000,   0.00000,   0.00000,1.00000,1,  100.0,   310.400,    62.080,   1,1.0000,   0,1.0000,   0,1.0000,   0,1.0000,0, 1.0000
27820,'2 ',   159.324,   140.500,   140.500,  -140.500,1.02000,    0,   100.000,   0.00000,   1.00000,   0.00000,   0.00000,1.00000,1,  100.0,   310.400,    62.080,   1,1.0000,   0,1.0000,   0,1.0000,   0,1.0000,0, 1.0000
27821,'1 ',   385.212,   100.953,   326.600,  -175.700,1.02000,    0,   100.000,   0.00000,   1.00000,   0.00000,   0.00000,1.00000,1,  100.0,   527.000,   350.000,   1,1.0000,   0,1.0000,   0,1.0000,   0,1.0000,0, 1.0000
27821,'2 ',   385.212,   100.953,   326.600,  -175.700,1.02000,    0,   100.000,   0.00000,   1.00000,   0.00000,   0.00000,1.00000,1,  100.0,   527.000,   350.000,   1,1.0000,   0,1.0000,   0,1.0000,   0,1.0000,0, 1.0000
27821,'3 ',   254.323,   100.953,   184.700,   -99.300,1.02000,    0,   100.000,   0.00000,   1.00000,   0.00000,   0.00000,1.00000,1,  100.0,   298.000,   232.000,   1,1.0000,   0,1.0000,   0,1.0000,   0,1.0000,0, 1.0000
27821,'4 ',   251.911,   100.953,   184.700,   -99.300,1.02000,    0,   100.000,   0.00000,   1.00000,   0.00000,   0.00000,1.00000,1,  100.0,   298.000,   232.000,   1,1.0000,   0,1.0000,   0,1.0000,   0,1.0000,0, 1.0000
27821,'5 ',   254.323,   100.953,   184.700,   -99.300,1.02000,    0,   100.000,   0.00000,   1.00000,   0.00000,   0.00000,1.00000,1,  100.0,   298.000,   232.000,   1,1.0000,   0,1.0000,   0,1.0000,   0,1.0000,0, 1.0000
27821,'6 ',   254.323,   100.953,   184.700,   -99.300,1.02000,    0,   100.000,   0.00000,   1.00000,   0.00000,   0.00000,1.00000,1,  100.0,   298.000,   232.000,   1,1.0000,   0,1.0000,   0,1.0000,   0,1.0000,0, 1.0000
27821,'7 ',   254.323,   100.953,   184.700,   -99.300,1.02000,    0,   100.000,   0.00000,   1.00000,   0.00000,   0.00000,1.00000,1,  100.0,   298.000,   232.000,   1,1.0000,   0,1.0000,   0,1.0000,   0,1.0000,0, 1.0000
27821,'8 ',   251.911,   100.953,   184.700,   -99.300,1.02000,    0,   100.000,   0.00000,   1.00000,   0.00000,   0.00000,1.00000,1,  100.0,   298.000,   232.000,   1,1.0000,   0,1.0000,   0,1.0000,   0,1.0000,0, 1.0000
27822,'1 ',    31.875,    30.100,    30.100,   -20.700,1.02000,    0,   100.000,   0.00000,   1.00000,   0.00000,   0.00000,1.00000,1,  100.0,    62.100,    15.000,   1,1.0000,   0,1.0000,   0,1.0000,   0,1.0000,0, 1.0000
27822,'2 ',    31.875,    30.100,    30.100,   -20.700,1.02000,    0,   100.000,   0.00000,   1.00000,   0.00000,   0.00000,1.00000,1,  100.0,    62.100,    15.000,   1,1.0000,   0,1.0000,   0,1.0000,   0,1.0000,0, 1.0000
27822,'3 ',    31.875,    30.100,    30.100,   -20.700,1.02000,    0,   100.000,   0.00000,   1.00000,   0.00000,   0.00000,1.00000,1,  100.0,    62.100,    15.000,   1,1.0000,   0,1.0000,   0,1.0000,   0,1.0000,0, 1.0000
27822,'4 ',    31.875,    30.100,    30.100,   -20.700,1.02000,    0,   100.000,   0.00000,   1.00000,   0.00000,   0.00000,1.00000,1,  100.0,    62.100,    15.000,   1,1.0000,   0,1.0000,   0,1.0000,   0,1.0000,0, 1.0000
27822,'5 ',   289.339,   141.401,   273.000,  -187.900,1.02000,    0,   100.000,   0.00000,   1.00000,   0.00000,   0.00000,1.00000,1,  100.0,   563.700,    50.000,   1,1.0000,   0,1.0000,   0,1.0000,   0,1.0000,0, 1.0000
27822,'6 ',   199.878,   141.401,   184.400,   -99.200,1.02000,    0,   100.000,   0.00000,   1.00000,   0.00000,   0.00000,1.00000,1,  100.0,   297.500,   180.000,   1,1.0000,   0,1.0000,   0,1.0000,   0,1.0000,0, 1.0000
27822,'7 ',   199.878,   141.401,   184.400,   -99.200,1.02000,    0,   100.000,   0.00000,   1.00000,   0.00000,   0.00000,1.00000,1,  100.0,   297.500,   180.000,   1,1.0000,   0,1.0000,   0,1.0000,   0,1.0000,0, 1.0000
27823,'1 ',   290.834,   180.700,   180.700,   -97.200,1.02000,    0,   100.000,   0.00000,   1.00000,   0.00000,   0.00000,1.00000,1,  100.0,   291.600,    90.000,   1,1.0000,   0,1.0000,   0,1.0000,   0,1.0000,0, 1.0000
27824,'1 ',    12.668,    15.200,    15.200,    -8.200,1.02000,    0,   100.000,   0.00000,   1.00000,   0.00000,   0.00000,1.00000,1,  100.0,    24.600,     3.000,   1,1.0000,   0,1.0000,   0,1.0000,   0,1.0000,0, 1.0000
27824,'2 ',    12.668,    15.200,    15.200,    -8.200,1.02000,    0,   100.000,   0.00000,   1.00000,   0.00000,   0.00000,1.00000,1,  100.0,    24.600,     3.000,   1,1.0000,   0,1.0000,   0,1.0000,   0,1.0000,0, 1.0000
27824,'3 ',    38.496,    46.500,    46.500,   -25.000,1.02000,    0,   100.000,   0.00000,   1.00000,   0.00000,   0.00000,1.00000,1,  100.0,    75.000,    21.000,   1,1.0000,   0,1.0000,   0,1.0000,   0,1.0000,0, 1.0000
27824,'4 ',    56.421,    59.600,    59.600,   -32.000,1.02000,    0,   100.000,   0.00000,   1.00000,   0.00000,   0.00000,1.00000,1,  100.0,    96.100,    50.000,   1,1.0000,   0,1.0000,   0,1.0000,   0,1.0000,0, 1.0000
27824,'5 ',   128.681,   155.400,   155.400,   -83.600,1.02000,    0,   100.000,   0.00000,   1.00000,   0.00000,   0.00000,1.00000,1,  100.0,   250.700,    65.000,   1,1.0000,   0,1.0000,   0,1.0000,   0,1.0000,0, 1.0000
27825,'1 ',   112.717,   110.632,   136.100,   -73.200,1.02000,    0,   100.000,   0.00000,   1.00000,   0.00000,   0.00000,1.00000,1,  100.0,   219.600,    80.000,   1,1.0000,   0,1.0000,   0,1.0000,   0,1.0000,0, 1.0000
27825,'2 ',    98.448,   110.632,   118.900,   -63.900,1.02000,    0,   100.000,   0.00000,   1.00000,   0.00000,   0.00000,1.00000,1,  100.0,   191.800,    65.000,   1,1.0000,   0,1.0000,   0,1.0000,   0,1.0000,0, 1.0000
27826,'1 ',    28.436,    26.800,    26.800,   -18.500,1.02000,    0,   100.000,   0.00000,   1.00000,   0.00000,   0.00000,1.00000,1,  100.0,    55.400,    20.000,   1,1.0000,   0,1.0000,   0,1.0000,   0,1.0000,0, 1.0000
27826,'2 ',    28.436,    26.800,    26.800,   -18.500,1.02000,    0,   100.000,   0.00000,   1.00000,   0.00000,   0.00000,1.00000,1,  100.0,    55.400,    20.000,   1,1.0000,   0,1.0000,   0,1.0000,   0,1.0000,0, 1.0000
27826,'3 ',    28.436,    26.800,    26.800,   -18.500,1.02000,    0,   100.000,   0.00000,   1.00000,   0.00000,   0.00000,1.00000,1,  100.0,    55.400,    20.000,   1,1.0000,   0,1.0000,   0,1.0000,   0,1.0000,0, 1.0000
27826,'4 ',    28.436,    26.800,    26.800,   -18.500,1.02000,    0,   100.000,   0.00000,   1.00000,   0.00000,   0.00000,1.00000,1,  100.0,    55.400,    20.000,   1,1.0000,   0,1.0000,   0,1.0000,   0,1.0000,0, 1.0000
27826,'5 ',   216.196,   127.220,   204.000,  -140.400,1.02000,    0,   100.000,   0.00000,   1.00000,   0.00000,   0.00000,1.00000,1,  100.0,   421.200,   151.632,   1,1.0000,   0,1.0000,   0,1.0000,   0,1.0000,0, 1.0000
27826,'6 ',   107.601,   127.220,   129.000,   -69.400,1.02000,    0,   100.000,   0.00000,   1.00000,   0.00000,   0.00000,1.00000,1,  100.0,   208.200,    93.690,   1,1.0000,   0,1.0000,   0,1.0000,   0,1.0000,0, 1.0000
27826,'7 ',   107.601,   127.220,   129.000,   -69.400,1.02000,    0,   100.000,   0.00000,   1.00000,   0.00000,   0.00000,1.00000,1,  100.0,   208.200,    93.690,   1,1.0000,   0,1.0000,   0,1.0000,   0,1.0000,0, 1.0000
27826,'8 ',   107.601,   127.220,   129.000,   -69.400,1.02000,    0,   100.000,   0.00000,   1.00000,   0.00000,   0.00000,1.00000,1,  100.0,   208.200,    93.690,   1,1.0000,   0,1.0000,   0,1.0000,   0,1.0000,0, 1.0000
27826,'9 ',   107.601,   127.220,   129.000,   -69.400,1.02000,    0,   100.000,   0.00000,   1.00000,   0.00000,   0.00000,1.00000,1,  100.0,   208.200,    93.690,   1,1.0000,   0,1.0000,   0,1.0000,   0,1.0000,0, 1.0000
27827,'1 ',   113.363,    55.771,   123.900,   -66.700,1.02000,    0,   100.000,   0.00000,   1.00000,   0.00000,   0.00000,1.00000,1,  100.0,   200.000,   100.000,   1,1.0000,   0,1.0000,   0,1.0000,   0,1.0000,0, 1.0000
27827,'2 ',   113.363,    55.771,   123.900,   -66.700,1.02000,    0,   100.000,   0.00000,   1.00000,   0.00000,   0.00000,1.00000,1,  100.0,   200.000,   100.000,   1,1.0000,   0,1.0000,   0,1.0000,   0,1.0000,0, 1.0000
27827,'3 ',   113.363,    55.771,   123.900,   -66.700,1.02000,    0,   100.000,   0.00000,   1.00000,   0.00000,   0.00000,1.00000,1,  100.0,   200.000,   100.000,   1,1.0000,   0,1.0000,   0,1.0000,   0,1.0000,0, 1.0000
27828,'1 ',   108.363,   123.900,   123.900,   -66.700,1.02000,    0,   100.000,   0.00000,   1.00000,   0.00000,   0.00000,1.00000,1,  100.0,   200.000,    95.000,   1,1.0000,   0,1.0000,   0,1.0000,   0,1.0000,0, 1.0000
27828,'2 ',    54.978,    46.200,    46.200,   -24.800,1.02000,    0,   100.000,   0.00000,   1.00000,   0.00000,   0.00000,1.00000,1,  100.0,    74.500,    50.000,   1,1.0000,   0,1.0000,   0,1.0000,   0,1.0000,0, 1.0000
27829,'1 ',   143.928,    56.708,   123.600,   -66.500,1.02000,    0,   100.000,   0.00000,   1.00000,   0.00000,   0.00000,1.00000,1,  100.0,   199.400,   100.000,   1,1.0000,   0,1.0000,   0,1.0000,   0,1.0000,0, 1.0000
27829,'2 ',   143.928,    56.708,   123.600,   -66.500,1.02000,    0,   100.000,   0.00000,   1.00000,   0.00000,   0.00000,1.00000,1,  100.0,   199.400,   100.000,   1,1.0000,   0,1.0000,   0,1.0000,   0,1.0000,0, 1.0000
27830,'1 ',   102.144,    15.411,   123.300,   -66.300,1.02000,    0,   100.000,   0.00000,   1.00000,   0.00000,   0.00000,1.00000,1,  100.0,   199.000,    80.000,   1,1.0000,   0,1.0000,   0,1.0000,   0,1.0000,0, 1.0000
27830,'2 ',   102.144,    15.411,   123.300,   -66.300,1.02000,    0,   100.000,   0.00000,   1.00000,   0.00000,   0.00000,1.00000,1,  100.0,   199.000,    80.000,   1,1.0000,   0,1.0000,   0,1.0000,   0,1.0000,0, 1.0000
27830,'3 ',    97.011,    15.411,   117.100,   -63.000,1.02000,    0,   100.000,   0.00000,   1.00000,   0.00000,   0.00000,1.00000,1,  100.0,   189.000,    45.000,   1,1.0000,   0,1.0000,   0,1.0000,   0,1.0000,0, 1.0000
27831,'1 ',    30.797,    37.200,    37.200,   -20.000,1.02000,    0,   100.000,   0.00000,   1.00000,   0.00000,   0.00000,1.00000,1,  100.0,    60.000,    12.000,   1,1.0000,   0,1.0000,   0,1.0000,   0,1.0000,0, 1.0000
27831,'2 ',    30.797,    37.200,    37.200,   -20.000,1.02000,    0,   100.000,   0.00000,   1.00000,   0.00000,   0.00000,1.00000,1,  100.0,    60.000,    12.000,   1,1.0000,   0,1.0000,   0,1.0000,   0,1.0000,0, 1.0000
27831,'3 ',    13.831,    16.700,    16.700,    -9.000,1.02000,    0,   100.000,   0.00000,   1.00000,   0.00000,   0.00000,1.00000,1,  100.0,    27.000,     3.000,   1,1.0000,   0,1.0000,   0,1.0000,   0,1.0000,0, 1.0000
27831,'4 ',    38.496,    46.500,    46.500,   -25.000,1.02000,    0,   100.000,   0.00000,   1.00000,   0.00000,   0.00000,1.00000,1,  100.0,    75.000,    30.000,   1,1.0000,   0,1.0000,   0,1.0000,   0,1.0000,0, 1.0000
27831,'5 ',   137.319,   160.600,   160.600,   -86.400,1.02000,    0,   100.000,   0.00000,   1.00000,   0.00000,   0.00000,1.00000,1,  100.0,   259.200,   120.000,   1,1.0000,   0,1.0000,   0,1.0000,   0,1.0000,0, 1.0000
27831,'6 ',   102.092,   123.300,   123.300,   -66.300,1.02000,    0,   100.000,   0.00000,   1.00000,   0.00000,   0.00000,1.00000,1,  100.0,   198.900,    70.000,   1,1.0000,   0,1.0000,   0,1.0000,   0,1.0000,0, 1.0000
27832,'1 ',   115.283,    53.286,   123.200,   -66.300,1.02000,    0,   100.000,   0.00000,   1.00000,   0.00000,   0.00000,1.00000,1,  100.0,   198.800,   102.000,   1,1.0000,   0,1.0000,   0,1.0000,   0,1.0000,0, 1.0000
27832,'2 ',   115.290,    53.286,   123.300,   -66.300,1.02000,    0,   100.000,   0.00000,   1.00000,   0.00000,   0.00000,1.00000,1,  100.0,   198.900,   102.000,   1,1.0000,   0,1.0000,   0,1.0000,   0,1.0000,0, 1.0000
27832,'3 ',   115.290,    53.286,   123.300,   -66.300,1.02000,    0,   100.000,   0.00000,   1.00000,   0.00000,   0.00000,1.00000,1,  100.0,   198.900,   102.000,   1,1.0000,   0,1.0000,   0,1.0000,   0,1.0000,0, 1.0000
...